  Page 1                                    Thu Jun 08 22:02:15 2023

  ******************************************************************
  *                           E P A N E T                          *
  *                   Hydraulic and Water Quality                  *
  *                   Analysis for Pipe Networks                   *
  *                         Version 2.2                            *
  ******************************************************************
  
  Analysis begun Thu Jun 08 22:02:15 2023

  Analysis ended Thu Jun 08 22:02:15 2023
